<?xml version="1.0" encoding="UTF-8"?>

<!-- generated on 2025-05-12 23:07:09 by Eclipse SUMO netedit Version v1_23_1+0046-dfec3d87729
-->

<additional xmlns:xsi="http://www.w3.org/2001/XMLSchema-instance" xsi:noNamespaceSchemaLocation="http://sumo.dlr.de/xsd/additional_file.xsd">
    <!-- JuPedSim elements -->
    <poly id="jps.walkable_area_8E" type="jupedsim.walkable_area" color="179,217,255" fill="1" layer="1.00" geo="1" shape="6.734176,51.264742 6.734566,51.264443 6.734906,51.264618 6.735198,51.264768 6.735256,51.264798 6.735307,51.264828 6.735356,51.264859 6.735407,51.264895 6.735516,51.264970 6.735624,51.265039 6.735882,51.265207 6.735911,51.265185 6.735661,51.265025 6.735451,51.264881 6.735385,51.264841 6.735232,51.264747 6.735347,51.264659 6.735488,51.264731 6.735525,51.264754 6.735684,51.264847 6.735712,51.264834 6.735738,51.264816 6.735915,51.264683 6.735965,51.264643 6.735993,51.264626 6.736031,51.264609 6.736068,51.264595 6.736136,51.264608 6.736321,51.264551 6.737485,51.264218 6.737448,51.264200 6.737412,51.264211 6.737355,51.264228 6.737315,51.264238 6.737275,51.264248 6.737215,51.264263 6.737172,51.264274 6.737131,51.264251 6.736681,51.264020 6.736083,51.263714 6.736009,51.263676 6.735915,51.263748 6.735632,51.263602 6.735391,51.263787 6.735334,51.263759 6.735580,51.263575 6.735472,51.263520 6.735387,51.263468 6.735046,51.263293 6.734481,51.263731 6.734415,51.263697 6.734275,51.263808 6.734342,51.263837 6.734093,51.264017 6.734155,51.264048 6.733619,51.264451 6.733664,51.264474 6.733691,51.264484 6.733722,51.264493 6.733952,51.264601 6.733988,51.264618 6.733853,51.264733 6.733459,51.265036 6.733687,51.265118 6.734176,51.264742"/>
    <poly id="jps.obstacle_61" type="jupedsim.obstacle" color="255,204,204" fill="1" layer="2.00" geo="1" shape="6.734652,51.264443 6.734708,51.264449 6.734727,51.264481 6.734721,51.264489 6.734655,51.264454 6.734652,51.264452 6.734651,51.264449 6.734652,51.264443"/>
    <poly id="jps.obstacle_62" type="jupedsim.obstacle" color="255,204,204" fill="1" layer="2.00" geo="1" shape="6.734890,51.264571 6.735052,51.264587 6.735047,51.264578 6.735104,51.264584 6.735114,51.264602 6.735046,51.264655 6.734755,51.264506 6.734768,51.264486 6.734842,51.264493 6.734890,51.264571"/>
    <poly id="jps.obstacle_63" type="jupedsim.obstacle" color="255,204,204" fill="1" layer="2.00" geo="1" shape="6.735065,51.264431 6.734960,51.264421 6.734863,51.264411 6.734825,51.264348 6.734886,51.264301 6.734913,51.264275 6.735017,51.264196 6.735055,51.264166 6.735147,51.264173 6.735232,51.264312 6.735242,51.264313 6.735268,51.264289 6.735309,51.264296 6.735311,51.264320 6.735380,51.264327 6.735392,51.264347 6.735468,51.264472 6.735075,51.264432 6.735075,51.264432 6.735065,51.264431"/>
    <poly id="jps.obstacle_64" type="jupedsim.obstacle" color="255,204,204" fill="1" layer="2.00" geo="1" shape="6.736950,51.264360 6.736895,51.264376 6.736884,51.264362 6.736939,51.264345 6.736950,51.264360"/>
    <poly id="jps.obstacle_65" type="jupedsim.obstacle" color="255,204,204" fill="1" layer="2.00" geo="1" shape="6.735478,51.264314 6.735489,51.264294 6.735586,51.264305 6.735731,51.264194 6.735893,51.264070 6.735978,51.264211 6.736125,51.264092 6.736271,51.263974 6.736583,51.264134 6.736862,51.264274 6.736913,51.264298 6.736877,51.264325 6.736416,51.264459 6.736051,51.264566 6.736012,51.264573 6.735971,51.264573 6.735624,51.264537 6.735478,51.264314"/>
    <poly id="jps.obstacle_66" type="jupedsim.obstacle" color="255,204,204" fill="1" layer="2.00" geo="1" shape="6.735453,51.264601 6.735782,51.264635 6.735883,51.264646 6.735892,51.264664 6.735886,51.264668 6.735817,51.264723 6.735686,51.264819 6.735544,51.264742 6.735368,51.264638 6.735425,51.264597 6.735453,51.264601"/>
    <poly id="jps.obstacle_67" type="jupedsim.obstacle" color="255,204,204" fill="1" layer="2.00" geo="1" shape="6.735250,51.264116 6.735283,51.264091 6.735232,51.264085 6.735250,51.264116"/>
    <poly id="jps.obstacle_68" type="jupedsim.obstacle" color="255,204,204" fill="1" layer="2.00" geo="1" shape="6.735562,51.264154 6.735511,51.264149 6.735544,51.264124 6.735562,51.264154"/>
    <poly id="jps.obstacle_69" type="jupedsim.obstacle" color="255,204,204" fill="1" layer="2.00" geo="1" shape="6.735725,51.264170 6.735708,51.264140 6.735675,51.264166 6.735725,51.264170"/>
    <poly id="jps.obstacle_6A" type="jupedsim.obstacle" color="255,204,204" fill="1" layer="2.00" geo="1" shape="6.734915,51.264223 6.734894,51.264197 6.734866,51.264218 6.734915,51.264223"/>
    <poly id="jps.obstacle_6B" type="jupedsim.obstacle" color="255,204,204" fill="1" layer="2.00" geo="1" shape="6.735159,51.263993 6.735176,51.264023 6.735192,51.264019 6.735225,51.263994 6.735186,51.263989 6.735159,51.263993"/>
    <poly id="jps.obstacle_6C" type="jupedsim.obstacle" color="255,204,204" fill="1" layer="2.00" geo="1" shape="6.735365,51.264045 6.735356,51.264041 6.735360,51.264038 6.735355,51.264035 6.735338,51.264006 6.735365,51.264006 6.735392,51.264011 6.735402,51.264018 6.735365,51.264045"/>
    <poly id="jps.obstacle_6D" type="jupedsim.obstacle" color="255,204,204" fill="1" layer="2.00" geo="1" shape="6.735667,51.264073 6.735649,51.264044 6.735616,51.264068 6.735667,51.264073"/>
    <poly id="jps.obstacle_6E" type="jupedsim.obstacle" color="255,204,204" fill="1" layer="2.00" geo="1" shape="6.734401,51.264116 6.734343,51.264090 6.734385,51.264054 6.734443,51.264080 6.734401,51.264116"/>
    <poly id="jps.obstacle_78" type="jupedsim.obstacle" color="255,204,204" fill="1" layer="2.00" geo="1" shape="6.736338,51.264518 6.736336,51.264519 6.736338,51.264520 6.736340,51.264519 6.736338,51.264518"/>
    <poly id="jps.obstacle_79" type="jupedsim.obstacle" color="255,204,204" fill="1" layer="2.00" geo="1" shape="6.736509,51.264468 6.736507,51.264469 6.736509,51.264470 6.736511,51.264469 6.736509,51.264468"/>
    <poly id="jps.obstacle_7A" type="jupedsim.obstacle" color="255,204,204" fill="1" layer="2.00" geo="1" shape="6.737038,51.264313 6.737035,51.264314 6.737037,51.264317 6.737040,51.264317 6.737038,51.264313"/>
    <poly id="jps.obstacle_7B" type="jupedsim.obstacle" color="255,204,204" fill="1" layer="2.00" geo="1" shape="6.736686,51.264416 6.736683,51.264417 6.736685,51.264420 6.736688,51.264420 6.736686,51.264416"/>
    <poly id="jps.obstacle_7C" type="jupedsim.obstacle" color="255,204,204" fill="1" layer="2.00" geo="1" shape="6.736861,51.264365 6.736858,51.264365 6.736861,51.264369 6.736863,51.264368 6.736861,51.264365"/>
    <poly id="jps.obstacle_7D" type="jupedsim.obstacle" color="255,204,204" fill="1" layer="2.00" geo="1" shape="6.736979,51.264346 6.736977,51.264344 6.736972,51.264345 6.736973,51.264347 6.736979,51.264346"/>
    <poly id="jps.obstacle_7E" type="jupedsim.obstacle" color="255,204,204" fill="1" layer="2.00" geo="1" shape="6.737098,51.264295 6.737096,51.264296 6.737098,51.264298 6.737100,51.264297 6.737098,51.264295"/>
    <poly id="jps.obstacle_7F" type="jupedsim.obstacle" color="255,204,204" fill="1" layer="2.00" geo="1" shape="6.735373,51.264145 6.735371,51.264146 6.735373,51.264147 6.735375,51.264146 6.735373,51.264145"/>
    <poly id="jps.obstacle_80" type="jupedsim.obstacle" color="255,204,204" fill="1" layer="2.00" geo="1" shape="6.735206,51.263850 6.735203,51.263851 6.735206,51.263852 6.735208,51.263851 6.735206,51.263850"/>
    <poly id="jps.obstacle_81" type="jupedsim.obstacle" color="255,204,204" fill="1" layer="2.00" geo="1" shape="6.735126,51.263755 6.735124,51.263756 6.735126,51.263758 6.735128,51.263756 6.735126,51.263755"/>
    <poly id="jps.obstacle_82" type="jupedsim.obstacle" color="255,204,204" fill="1" layer="2.00" geo="1" shape="6.735381,51.263560 6.735379,51.263562 6.735381,51.263563 6.735383,51.263562 6.735381,51.263560"/>
    <poly id="jps.obstacle_83" type="jupedsim.obstacle" color="255,204,204" fill="1" layer="2.00" geo="1" shape="6.734627,51.264141 6.734624,51.264142 6.734626,51.264143 6.734629,51.264142 6.734627,51.264141"/>
    <poly id="jps.obstacle_84" type="jupedsim.obstacle" color="255,204,204" fill="1" layer="2.00" geo="1" shape="6.734121,51.264530 6.734118,51.264531 6.734121,51.264532 6.734123,51.264531 6.734121,51.264530"/>
    <poly id="jps.obstacle_85" type="jupedsim.obstacle" color="255,204,204" fill="1" layer="2.00" geo="1" shape="6.734380,51.264331 6.734378,51.264333 6.734380,51.264334 6.734382,51.264333 6.734380,51.264331"/>
    <poly id="jps.obstacle_86" type="jupedsim.obstacle" color="255,204,204" fill="1" layer="2.00" geo="1" shape="6.734724,51.263955 6.734722,51.263956 6.734724,51.263957 6.734726,51.263956 6.734724,51.263955"/>
    <poly id="jps.obstacle_87" type="jupedsim.obstacle" color="255,204,204" fill="1" layer="2.00" geo="1" shape="6.735218,51.263409 6.735216,51.263410 6.735218,51.263411 6.735220,51.263410 6.735218,51.263409"/>
    <poly id="jps.obstacle_88" type="jupedsim.obstacle" color="255,204,204" fill="1" layer="2.00" geo="1" shape="6.735036,51.263315 6.735034,51.263316 6.735036,51.263317 6.735038,51.263316 6.735036,51.263315"/>
    <poly id="jps.obstacle_89" type="jupedsim.obstacle" color="255,204,204" fill="1" layer="2.00" geo="1" shape="6.735821,51.263995 6.735819,51.263996 6.735821,51.263998 6.735823,51.263996 6.735821,51.263995"/>
    <poly id="jps.obstacle_8A" type="jupedsim.obstacle" color="255,204,204" fill="1" layer="2.00" geo="1" shape="6.735294,51.264257 6.735278,51.264230 6.735251,51.264251 6.735294,51.264257"/>
    <poly id="jps.obstacle_8B" type="jupedsim.obstacle" color="255,204,204" fill="1" layer="2.00" geo="1" shape="6.733816,51.264832 6.733902,51.264769 6.733902,51.264779 6.733901,51.264787 6.733899,51.264795 6.733896,51.264804 6.733889,51.264819 6.733880,51.264833 6.733869,51.264846 6.733854,51.264859 6.733811,51.264838 6.733816,51.264832"/>
    <poly id="jps.obstacle_8C" type="jupedsim.obstacle" color="255,204,204" fill="1" layer="2.00" geo="1" shape="6.734293,51.264467 6.734336,51.264489 6.734228,51.264572 6.734186,51.264549 6.734293,51.264467"/>
    <poly id="jps.obstacle_8D" type="jupedsim.obstacle" color="255,204,204" fill="1" layer="2.00" geo="1" shape="6.734202,51.264592 6.734184,51.264606 6.734168,51.264619 6.734149,51.264630 6.734127,51.264639 6.734092,51.264649 6.734052,51.264652 6.734160,51.264569 6.734202,51.264592"/>
</additional>
