<?xml version="1.0" encoding="UTF-8"?>

<additional xmlns:xsi="http://www.w3.org/2001/XMLSchema-instance" xsi:noNamespaceSchemaLocation="http://sumo.dlr.de/xsd/additional_file.xsd">

    <rerouter id="rerouter_station" edges="-38001095#0" pos="24.5" radius="44" optional="0">
        <interval begin="0" end="86400">
            <viaProbReroute id="upper1" probability="0.35"/>
            <viaProbReroute id="lower1" probability="0.65"/>
        </interval>
    </rerouter>


    <rerouter id="rerouter_upper1" edges="upper1" pos="1" radius="5" optional="0">
        <interval begin="0" end="86400">
            <viaProbReroute id="upper2" probability="1.00"/>
        </interval>
    </rerouter>

    <rerouter id="rerouter_upper2" edges="upper2" pos="1" radius="5" optional="0">
        <interval begin="0" end="86400">
            <viaProbReroute id="upper3" probability="1.00"/>
        </interval>
    </rerouter>

    <rerouter id="rerouter_lower1" edges="lower1" pos="1" radius="5" optional="0">
        <interval begin="0" end="86400">
            <viaProbReroute id="lower2" probability="1.00"/>
        </interval>
    </rerouter>

    <rerouter id="rerouter_lower2" edges="lower2" pos="1" radius="5" optional="0">
        <interval begin="0" end="86400">
            <viaProbReroute id="lower3" probability="1.00"/>
        </interval>
    </rerouter>

</additional>







