<?xml version="1.0" encoding="UTF-8"?>

<!-- generated on 2025-05-07 11:36:12 by Eclipse SUMO netedit Version 1.22.0
-->

<routes xmlns:xsi="http://www.w3.org/2001/XMLSchema-instance" xsi:noNamespaceSchemaLocation="http://sumo.dlr.de/xsd/routes_file.xsd">
    <!-- Vehicles, persons and containers (sorted by depart) -->
    <flow id="f_0" begin="0.00" from="E8" to="-E6" number="1800" period="30.00"/>
    <flow id="f_1" begin="0.00" from="-E9" to="-E8" number="1800" period="30.00"/>
    <personFlow id="pf_0" begin="0.00" departPos="random" color="red" end="3600.00" period="4.00">
        <personTrip from="-E8" to="-E9"/>
    </personFlow>
    <personFlow id="pf_1" begin="0.00" departPos="random" color="green" end="3600.00" period="4.00">
        <personTrip from="-E9" to="-E8"/>
    </personFlow>
    <personFlow id="pf_2" begin="0.00" departPos="random" color="blue" end="3600.00" period="4.00">
        <personTrip from="E6" to="E7"/>
    </personFlow>
</routes>
