<?xml version="1.0" encoding="UTF-8"?>

<!-- generated on 2025-05-07 08:18:11 by Eclipse SUMO netedit Version 1.22.0
-->

<net version="1.20" junctionCornerDetail="5" limitTurnSpeed="5.50" xmlns:xsi="http://www.w3.org/2001/XMLSchema-instance" xsi:noNamespaceSchemaLocation="http://sumo.dlr.de/xsd/net_file.xsd">

    <location netOffset="0.00,0.00" convBoundary="-42.19,-39.10,43.65,40.12" origBoundary="10000000000.00,10000000000.00,-10000000000.00,-10000000000.00" projParameter="!"/>

    <edge id=":J0_0" function="internal">
        <lane id=":J0_0_0" index="0" disallow="pedestrian" speed="13.89" length="0.31" shape="-3.32,29.86 -3.32,29.56"/>
    </edge>
    <edge id=":J0_1" function="internal">
        <lane id=":J0_1_0" index="0" disallow="pedestrian" speed="13.89" length="0.29" shape="-0.12,29.56 -0.12,29.85"/>
    </edge>
    <edge id=":J0_w0" function="walkingarea">
        <lane id=":J0_w0_0" index="0" allow="pedestrian" speed="2.78" length="0.32" width="2.00" shape="-4.92,29.56 -6.92,29.56 -6.92,29.88 -4.92,29.87"/>
    </edge>
    <edge id=":J0_w1" function="walkingarea">
        <lane id=":J0_w1_0" index="0" allow="pedestrian" speed="2.78" length="0.28" width="2.00" shape="1.48,29.84 3.48,29.84 3.48,29.56 1.48,29.56"/>
    </edge>
    <edge id=":J1_0" function="internal">
        <lane id=":J1_0_0" index="0" disallow="pedestrian" speed="6.53" length="4.80" shape="-3.32,7.13 -3.67,4.65 -4.72,2.87 -4.91,2.75"/>
    </edge>
    <edge id=":J1_1" function="internal">
        <lane id=":J1_1_0" index="0" disallow="pedestrian" speed="13.89" length="14.49" shape="-3.32,7.13 -3.23,-7.36"/>
    </edge>
    <edge id=":J1_2" function="internal">
        <lane id=":J1_2_0" index="0" disallow="pedestrian" speed="7.99" length="4.13" shape="-3.32,7.13 -2.77,3.25 -2.66,3.07"/>
    </edge>
    <edge id=":J1_12" function="internal">
        <lane id=":J1_12_0" index="0" disallow="pedestrian" speed="6.53" length="4.29" shape="-4.91,2.75 -6.47,1.80 -8.91,1.44"/>
    </edge>
    <edge id=":J1_13" function="internal">
        <lane id=":J1_13_0" index="0" disallow="pedestrian" speed="7.99" length="10.14" shape="-2.66,3.07 -1.10,0.50 1.67,-1.14 5.56,-1.64"/>
    </edge>
    <edge id=":J1_3" function="internal">
        <lane id=":J1_3_0" index="0" disallow="pedestrian" speed="6.49" length="4.79" shape="5.52,1.56 3.05,1.88 1.29,2.92 1.16,3.13"/>
    </edge>
    <edge id=":J1_4" function="internal">
        <lane id=":J1_4_0" index="0" disallow="pedestrian" speed="13.89" length="14.43" shape="5.52,1.56 -8.91,1.44"/>
    </edge>
    <edge id=":J1_5" function="internal">
        <lane id=":J1_5_0" index="0" disallow="pedestrian" speed="8.01" length="4.06" shape="5.52,1.56 1.65,0.96 1.52,0.88"/>
    </edge>
    <edge id=":J1_14" function="internal">
        <lane id=":J1_14_0" index="0" disallow="pedestrian" speed="6.49" length="4.28" shape="1.16,3.13 0.23,4.67 -0.12,7.13"/>
    </edge>
    <edge id=":J1_15" function="internal">
        <lane id=":J1_15_0" index="0" disallow="pedestrian" speed="8.01" length="10.18" shape="1.52,0.88 -1.10,-0.73 -2.72,-3.50 -3.23,-7.36"/>
    </edge>
    <edge id=":J1_6" function="internal">
        <lane id=":J1_6_0" index="0" disallow="pedestrian" speed="6.52" length="4.81" shape="-0.03,-7.32 0.29,-4.86 1.33,-3.10 1.57,-2.95"/>
    </edge>
    <edge id=":J1_7" function="internal">
        <lane id=":J1_7_0" index="0" disallow="pedestrian" speed="13.89" length="14.45" shape="-0.03,-7.32 -0.12,7.13"/>
    </edge>
    <edge id=":J1_8" function="internal">
        <lane id=":J1_8_0" index="0" disallow="pedestrian" speed="8.03" length="4.02" shape="-0.03,-7.32 -0.63,-3.47 -0.70,-3.36"/>
    </edge>
    <edge id=":J1_16" function="internal">
        <lane id=":J1_16_0" index="0" disallow="pedestrian" speed="6.52" length="4.27" shape="1.57,-2.95 3.09,-2.02 5.56,-1.64"/>
    </edge>
    <edge id=":J1_17" function="internal">
        <lane id=":J1_17_0" index="0" disallow="pedestrian" speed="8.03" length="10.17" shape="-0.70,-3.36 -2.31,-0.73 -5.07,0.90 -8.91,1.44"/>
    </edge>
    <edge id=":J1_9" function="internal">
        <lane id=":J1_9_0" index="0" disallow="pedestrian" speed="6.54" length="4.79" shape="-8.90,-1.76 -6.44,-2.10 -4.68,-3.15 -4.54,-3.38"/>
    </edge>
    <edge id=":J1_10" function="internal">
        <lane id=":J1_10_0" index="0" disallow="pedestrian" speed="13.89" length="14.45" shape="-8.90,-1.76 5.56,-1.64"/>
    </edge>
    <edge id=":J1_11" function="internal">
        <lane id=":J1_11_0" index="0" disallow="pedestrian" speed="8.02" length="4.08" shape="-8.90,-1.76 -5.06,-1.19 -4.89,-1.09"/>
    </edge>
    <edge id=":J1_18" function="internal">
        <lane id=":J1_18_0" index="0" disallow="pedestrian" speed="6.54" length="4.28" shape="-4.54,-3.38 -3.61,-4.90 -3.23,-7.36"/>
    </edge>
    <edge id=":J1_19" function="internal">
        <lane id=":J1_19_0" index="0" disallow="pedestrian" speed="8.02" length="10.15" shape="-4.89,-1.09 -2.32,0.48 -0.67,3.25 -0.12,7.13"/>
    </edge>
    <edge id=":J1_c0" function="crossing" crossingEdges="-E0 E0">
        <lane id=":J1_c0_0" index="0" allow="pedestrian" speed="2.78" length="6.40" width="4.00" shape="1.48,5.13 -4.92,5.13" outlineShape="1.48,7.13 -4.92,7.13 -5.04,5.89 -5.37,4.86 -5.92,4.07 -6.70,3.50 -7.01,3.39 -4.92,3.13 1.48,3.13 3.59,3.47 3.26,3.58 2.48,4.13 1.92,4.90 1.59,5.90"/>
    </edge>
    <edge id=":J1_c1" function="crossing" crossingEdges="E4 -E4">
        <lane id=":J1_c1_0" index="0" allow="pedestrian" speed="2.78" length="6.40" width="4.00" shape="3.58,-3.27 3.50,3.13" outlineShape="5.58,-3.24 5.50,3.26 5.50,3.16 4.27,3.25 3.26,3.58 2.48,4.13 1.92,4.90 1.82,5.22 1.50,3.11 1.58,-3.29 1.89,-5.39 1.99,-5.07 2.55,-4.28 3.33,-3.72 4.34,-3.37"/>
    </edge>
    <edge id=":J1_c2" function="crossing" crossingEdges="E5 -E5">
        <lane id=":J1_c2_0" index="0" allow="pedestrian" speed="2.78" length="6.40" width="4.00" shape="-4.85,-5.38 1.55,-5.30" outlineShape="-4.83,-7.38 1.57,-7.30 1.67,-7.29 1.67,-6.07 1.99,-5.07 2.55,-4.28 3.33,-3.72 3.64,-3.61 1.52,-3.30 -4.88,-3.38 -6.98,-3.70 -6.66,-3.80 -5.87,-4.36 -5.30,-5.14 -4.95,-6.15"/>
    </edge>
    <edge id=":J1_c3" function="crossing" crossingEdges="-E3 E3">
        <lane id=":J1_c3_0" index="0" allow="pedestrian" speed="2.78" length="6.40" width="4.00" shape="-6.92,3.05 -6.89,-3.35" outlineShape="-8.92,3.04 -8.89,-3.36 -7.66,-3.47 -6.66,-3.80 -5.87,-4.36 -5.30,-5.14 -4.95,-6.15 -4.87,-6.93 -4.93,7.05 -5.04,5.89 -5.37,4.86 -5.92,4.07 -6.70,3.50 -7.70,3.16"/>
    </edge>
    <edge id=":J1_w0" function="walkingarea">
        <lane id=":J1_w0_0" index="0" allow="pedestrian" speed="2.78" length="3.34" width="4.00" shape="-8.92,3.04 -8.92,5.04 -6.92,7.13 -4.92,7.13 -5.04,5.89 -5.37,4.86 -5.92,4.07 -6.70,3.50 -7.70,3.16"/>
    </edge>
    <edge id=":J1_w1" function="walkingarea">
        <lane id=":J1_w1_0" index="0" allow="pedestrian" speed="2.78" length="3.30" width="4.00" shape="1.48,7.13 3.48,7.13 5.48,5.16 5.50,3.16 4.27,3.25 3.26,3.58 2.48,4.13 1.92,4.90 1.59,5.90"/>
    </edge>
    <edge id=":J1_w2" function="walkingarea">
        <lane id=":J1_w2_0" index="0" allow="pedestrian" speed="2.78" length="3.32" width="4.00" shape="5.58,-3.24 5.60,-5.24 3.57,-7.27 1.57,-7.30 1.67,-6.07 1.99,-5.07 2.55,-4.28 3.33,-3.72 4.34,-3.37"/>
    </edge>
    <edge id=":J1_w3" function="walkingarea">
        <lane id=":J1_w3_0" index="0" allow="pedestrian" speed="2.78" length="3.33" width="4.00" shape="-4.83,-7.38 -6.83,-7.41 -8.88,-5.36 -8.89,-3.36 -7.66,-3.47 -6.66,-3.80 -5.87,-4.36 -5.30,-5.14 -4.95,-6.15"/>
    </edge>
    <edge id=":J10_w0" function="walkingarea">
        <lane id=":J10_w0_0" index="0" allow="pedestrian" speed="2.78" length="8.40" width="2.00" shape="43.61,3.65 43.58,5.65 43.73,-4.75 43.70,-2.75"/>
    </edge>
    <edge id=":J4_0" function="internal">
        <lane id=":J4_0_0" index="0" disallow="pedestrian" speed="13.89" length="0.27" shape="-31.68,1.34 -31.95,1.34"/>
    </edge>
    <edge id=":J4_1" function="internal">
        <lane id=":J4_1_0" index="0" disallow="pedestrian" speed="13.89" length="0.31" shape="-31.98,-1.86 -31.67,-1.86"/>
    </edge>
    <edge id=":J4_w0" function="walkingarea">
        <lane id=":J4_w0_0" index="0" allow="pedestrian" speed="2.78" length="0.23" width="2.00" shape="-31.93,2.94 -31.91,4.94 -31.70,4.94 -31.69,2.94"/>
    </edge>
    <edge id=":J4_w1" function="walkingarea">
        <lane id=":J4_w1_0" index="0" allow="pedestrian" speed="2.78" length="0.35" width="2.00" shape="-31.66,-3.46 -31.65,-5.46 -32.02,-5.46 -32.00,-3.46"/>
    </edge>
    <edge id=":J5_0" function="internal">
        <lane id=":J5_0_0" index="0" disallow="pedestrian" speed="13.89" length="0.30" shape="31.30,1.87 31.00,1.87"/>
    </edge>
    <edge id=":J5_1" function="internal">
        <lane id=":J5_1_0" index="0" disallow="pedestrian" speed="13.89" length="0.30" shape="31.04,-1.33 31.34,-1.33"/>
    </edge>
    <edge id=":J5_w0" function="walkingarea">
        <lane id=":J5_w0_0" index="0" allow="pedestrian" speed="2.78" length="0.29" width="2.00" shape="30.98,3.47 30.96,5.47 31.24,5.47 31.27,3.47"/>
    </edge>
    <edge id=":J5_w1" function="walkingarea">
        <lane id=":J5_w1_0" index="0" allow="pedestrian" speed="2.78" length="0.31" width="2.00" shape="31.37,-2.93 31.40,-4.93 31.08,-4.93 31.06,-2.93"/>
    </edge>
    <edge id=":J6_0" function="internal">
        <lane id=":J6_0_0" index="0" disallow="pedestrian" speed="13.89" length="0.31" shape="0.27,-29.46 0.27,-29.15"/>
    </edge>
    <edge id=":J6_1" function="internal">
        <lane id=":J6_1_0" index="0" disallow="pedestrian" speed="13.89" length="0.23" shape="-2.93,-29.20 -2.93,-29.43"/>
    </edge>
    <edge id=":J6_w0" function="walkingarea">
        <lane id=":J6_w0_0" index="0" allow="pedestrian" speed="2.78" length="0.37" width="2.00" shape="1.87,-29.13 3.87,-29.10 3.87,-29.50 1.87,-29.48"/>
    </edge>
    <edge id=":J6_w1" function="walkingarea">
        <lane id=":J6_w1_0" index="0" allow="pedestrian" speed="2.78" length="0.17" width="2.00" shape="-4.53,-29.41 -6.53,-29.39 -6.53,-29.25 -4.53,-29.22"/>
    </edge>
    <edge id=":J7_w0" function="walkingarea">
        <lane id=":J7_w0_0" index="0" allow="pedestrian" speed="2.78" length="8.40" width="2.00" shape="-4.88,40.13 -6.88,40.14 3.52,40.10 1.52,40.11"/>
    </edge>
    <edge id=":J8_w0" function="walkingarea">
        <lane id=":J8_w0_0" index="0" allow="pedestrian" speed="2.78" length="8.40" width="2.00" shape="1.76,-39.13 3.76,-39.15 -6.64,-39.04 -4.64,-39.06"/>
    </edge>
    <edge id=":J9_w0" function="walkingarea">
        <lane id=":J9_w0_0" index="0" allow="pedestrian" speed="2.78" length="8.40" width="2.00" shape="-42.22,-3.35 -42.24,-5.35 -42.14,5.05 -42.16,3.05"/>
    </edge>

    <edge id="-E0" from="J1" to="J0" priority="-1">
        <lane id="-E0_0" index="0" allow="pedestrian" speed="13.89" length="22.43" width="2.00" shape="2.48,7.13 2.48,29.56"/>
        <lane id="-E0_1" index="1" disallow="pedestrian" speed="13.89" length="22.43" shape="-0.12,7.13 -0.12,29.56"/>
    </edge>
    <edge id="-E3" from="J1" to="J4" priority="-1">
        <lane id="-E3_0" index="0" allow="pedestrian" speed="13.89" length="22.77" width="2.00" shape="-8.92,4.04 -31.69,3.94"/>
        <lane id="-E3_1" index="1" disallow="pedestrian" speed="13.89" length="22.77" shape="-8.91,1.44 -31.68,1.34"/>
    </edge>
    <edge id="-E4" from="J5" to="J1" priority="-1">
        <lane id="-E4_0" index="0" allow="pedestrian" speed="13.89" length="25.48" width="2.00" shape="30.97,4.47 5.49,4.16"/>
        <lane id="-E4_1" index="1" disallow="pedestrian" speed="13.89" length="25.48" shape="31.00,1.87 5.52,1.56"/>
    </edge>
    <edge id="-E5" from="J6" to="J1" priority="-1">
        <lane id="-E5_0" index="0" allow="pedestrian" speed="13.89" length="21.84" width="2.00" shape="2.87,-29.12 2.57,-7.28"/>
        <lane id="-E5_1" index="1" disallow="pedestrian" speed="13.89" length="21.84" shape="0.27,-29.15 -0.03,-7.32"/>
    </edge>
    <edge id="-E6" from="J0" to="J7" priority="-1">
        <lane id="-E6_0" index="0" allow="pedestrian" speed="13.89" length="10.26" width="2.00" shape="2.48,29.84 2.52,40.10"/>
        <lane id="-E6_1" index="1" disallow="pedestrian" speed="13.89" length="10.26" shape="-0.12,29.85 -0.08,40.11"/>
    </edge>
    <edge id="-E7" from="J8" to="J6" priority="-1">
        <lane id="-E7_0" index="0" allow="pedestrian" speed="13.89" length="9.65" width="2.00" shape="2.76,-39.14 2.87,-29.49"/>
        <lane id="-E7_1" index="1" disallow="pedestrian" speed="13.89" length="9.65" shape="0.16,-39.11 0.27,-29.46"/>
    </edge>
    <edge id="-E8" from="J4" to="J9" priority="-1">
        <lane id="-E8_0" index="0" allow="pedestrian" speed="13.89" length="10.23" width="2.00" shape="-31.92,3.94 -42.15,4.05"/>
        <lane id="-E8_1" index="1" disallow="pedestrian" speed="13.89" length="10.23" shape="-31.95,1.34 -42.17,1.45"/>
    </edge>
    <edge id="-E9" from="J10" to="J5" priority="-1">
        <lane id="-E9_0" index="0" allow="pedestrian" speed="13.89" length="12.34" width="2.00" shape="43.59,4.65 31.26,4.47"/>
        <lane id="-E9_1" index="1" disallow="pedestrian" speed="13.89" length="12.34" shape="43.63,2.05 31.30,1.87"/>
    </edge>
    <edge id="E0" from="J0" to="J1" priority="-1">
        <lane id="E0_0" index="0" allow="pedestrian" speed="13.89" length="22.43" width="2.00" shape="-5.92,29.56 -5.92,7.13"/>
        <lane id="E0_1" index="1" disallow="pedestrian" speed="13.89" length="22.43" shape="-3.32,29.56 -3.32,7.13"/>
    </edge>
    <edge id="E3" from="J4" to="J1" priority="-1">
        <lane id="E3_0" index="0" allow="pedestrian" speed="13.89" length="22.77" width="2.00" shape="-31.66,-4.46 -8.88,-4.36"/>
        <lane id="E3_1" index="1" disallow="pedestrian" speed="13.89" length="22.77" shape="-31.67,-1.86 -8.90,-1.76"/>
    </edge>
    <edge id="E4" from="J1" to="J5" priority="-1">
        <lane id="E4_0" index="0" allow="pedestrian" speed="13.89" length="25.48" width="2.00" shape="5.59,-4.24 31.07,-3.93"/>
        <lane id="E4_1" index="1" disallow="pedestrian" speed="13.89" length="25.48" shape="5.56,-1.64 31.04,-1.33"/>
    </edge>
    <edge id="E5" from="J1" to="J6" priority="-1">
        <lane id="E5_0" index="0" allow="pedestrian" speed="13.89" length="21.84" width="2.00" shape="-5.83,-7.40 -5.53,-29.23"/>
        <lane id="E5_1" index="1" disallow="pedestrian" speed="13.89" length="21.84" shape="-3.23,-7.36 -2.93,-29.20"/>
    </edge>
    <edge id="E6" from="J7" to="J0" priority="-1">
        <lane id="E6_0" index="0" allow="pedestrian" speed="13.89" length="10.26" width="2.00" shape="-5.88,40.14 -5.92,29.88"/>
        <lane id="E6_1" index="1" disallow="pedestrian" speed="13.89" length="10.26" shape="-3.28,40.13 -3.32,29.86"/>
    </edge>
    <edge id="E7" from="J6" to="J8" priority="-1">
        <lane id="E7_0" index="0" allow="pedestrian" speed="13.89" length="9.65" width="2.00" shape="-5.53,-29.40 -5.64,-39.05"/>
        <lane id="E7_1" index="1" disallow="pedestrian" speed="13.89" length="9.65" shape="-2.93,-29.43 -3.04,-39.08"/>
    </edge>
    <edge id="E8" from="J9" to="J4" priority="-1">
        <lane id="E8_0" index="0" allow="pedestrian" speed="13.89" length="10.23" width="2.00" shape="-42.23,-4.35 -32.01,-4.46"/>
        <lane id="E8_1" index="1" disallow="pedestrian" speed="13.89" length="10.23" shape="-42.21,-1.75 -31.98,-1.86"/>
    </edge>
    <edge id="E9" from="J5" to="J10" priority="-1">
        <lane id="E9_0" index="0" allow="pedestrian" speed="13.89" length="12.34" width="2.00" shape="31.38,-3.93 43.72,-3.75"/>
        <lane id="E9_1" index="1" disallow="pedestrian" speed="13.89" length="12.34" shape="31.34,-1.33 43.68,-1.15"/>
    </edge>

    <tlLogic id="J1" type="static" programID="0" offset="0">
        <phase duration="37" state="rrrgGgrrrgGgGrGr"/>
        <phase duration="5"  state="rrrgGgrrrgGgrrrr"/>
        <phase duration="3"  state="rrryyyrrryyyrrrr"/>
        <phase duration="37" state="gGgrrrgGgrrrrGrG"/>
        <phase duration="5"  state="gGgrrrgGgrrrrrrr"/>
        <phase duration="3"  state="yyyrrryyyrrrrrrr"/>
    </tlLogic>

    <junction id="J0" type="priority" x="-1.72" y="29.71" incLanes="E6_0 E6_1 -E0_0 -E0_1" intLanes=":J0_0_0 :J0_1_0" shape="-6.92,29.88 3.48,29.84 3.48,29.56 -6.92,29.56">
        <request index="0" response="00" foes="00" cont="0"/>
        <request index="1" response="00" foes="00" cont="0"/>
    </junction>
    <junction id="J1" type="traffic_light" x="-1.72" y="-0.13" incLanes="E0_0 E0_1 -E4_0 -E4_1 -E5_0 -E5_1 E3_0 E3_1 :J1_w1_0 :J1_w2_0 :J1_w3_0 :J1_w0_0" intLanes=":J1_12_0 :J1_1_0 :J1_13_0 :J1_14_0 :J1_4_0 :J1_15_0 :J1_16_0 :J1_7_0 :J1_17_0 :J1_18_0 :J1_10_0 :J1_19_0 :J1_c0_0 :J1_c1_0 :J1_c2_0 :J1_c3_0" shape="-6.92,7.13 3.48,7.13 3.70,6.02 3.98,5.64 4.36,5.36 4.86,5.20 5.48,5.16 5.60,-5.24 4.46,-5.48 4.07,-5.76 3.79,-6.15 3.62,-6.66 3.57,-7.27 -6.83,-7.41 -7.07,-6.27 -7.35,-5.87 -7.75,-5.59 -8.26,-5.42 -8.88,-5.36 -8.92,5.04 -7.81,5.27 -7.42,5.56 -7.15,5.97 -6.98,6.49">
        <request index="0"  response="1001000000010000" foes="1001000100010000" cont="1"/>
        <request index="1"  response="0101111000110000" foes="0101111100110000" cont="0"/>
        <request index="2"  response="0011110011110000" foes="0011110111110000" cont="1"/>
        <request index="3"  response="0011000000000000" foes="0011100010000000" cont="1"/>
        <request index="4"  response="1010000100000101" foes="1010100110000111" cont="0"/>
        <request index="5"  response="0110111100000100" foes="0110111110000110" cont="1"/>
        <request index="6"  response="0110010000000000" foes="0110010000000100" cont="1"/>
        <request index="7"  response="0101110000111000" foes="0101110000111100" cont="0"/>
        <request index="8"  response="1100110000110111" foes="1100110000110111" cont="1"/>
        <request index="9"  response="1100000000000000" foes="1100000000100010" cont="1"/>
        <request index="10" response="1010000101000100" foes="1010000111100110" cont="0"/>
        <request index="11" response="1001000100011100" foes="1001000110111110" cont="1"/>
        <request index="12" response="0000000000000000" foes="0000100010001111" cont="0"/>
        <request index="13" response="0000000000000000" foes="0000010001111100" cont="0"/>
        <request index="14" response="0000000000000000" foes="0000001111100010" cont="0"/>
        <request index="15" response="0000000000000000" foes="0000111100010001" cont="0"/>
    </junction>
    <junction id="J10" type="dead_end" x="43.65" y="0.45" incLanes="E9_0 E9_1" intLanes="" shape="43.65,0.45 43.73,-4.75 43.65,0.45"/>
    <junction id="J4" type="priority" x="-31.82" y="-0.26" incLanes="-E3_0 -E3_1 E8_0 E8_1" intLanes=":J4_0_0 :J4_1_0" shape="-31.70,4.94 -31.65,-5.46 -32.02,-5.46 -31.91,4.94">
        <request index="0" response="00" foes="00" cont="0"/>
        <request index="1" response="00" foes="00" cont="0"/>
    </junction>
    <junction id="J5" type="priority" x="31.17" y="0.27" incLanes="-E9_0 -E9_1 E4_0 E4_1" intLanes=":J5_0_0 :J5_1_0" shape="31.24,5.47 31.40,-4.93 31.08,-4.93 30.96,5.47">
        <request index="0" response="00" foes="00" cont="0"/>
        <request index="1" response="00" foes="00" cont="0"/>
    </junction>
    <junction id="J6" type="priority" x="-1.33" y="-29.31" incLanes="-E7_0 -E7_1 E5_0 E5_1" intLanes=":J6_0_0 :J6_1_0" shape="3.87,-29.50 -6.53,-29.39 -6.53,-29.25 3.87,-29.10">
        <request index="0" response="00" foes="00" cont="0"/>
        <request index="1" response="00" foes="00" cont="0"/>
    </junction>
    <junction id="J7" type="dead_end" x="-1.68" y="40.12" incLanes="-E6_0 -E6_1" intLanes="" shape="-1.68,40.12 3.52,40.10 -1.68,40.12"/>
    <junction id="J8" type="dead_end" x="-1.44" y="-39.10" incLanes="E7_0 E7_1" intLanes="" shape="-1.44,-39.10 -6.64,-39.04 -1.44,-39.10"/>
    <junction id="J9" type="dead_end" x="-42.19" y="-0.15" incLanes="-E8_0 -E8_1" intLanes="" shape="-42.19,-0.15 -42.14,5.05 -42.19,-0.15"/>

    <junction id=":J1_12_0" type="internal" x="-4.91" y="2.75" incLanes=":J1_0_0" intLanes=":J1_4_0 :J1_8_0 :J1_c0_0 :J1_c3_0"/>
    <junction id=":J1_13_0" type="internal" x="-2.66" y="3.07" incLanes=":J1_2_0 -E5_1" intLanes=":J1_4_0 :J1_5_0 :J1_6_0 :J1_7_0 :J1_10_0 :J1_11_0 :J1_c0_0 :J1_c1_0"/>
    <junction id=":J1_14_0" type="internal" x="1.16" y="3.13" incLanes=":J1_3_0" intLanes=":J1_7_0 :J1_11_0 :J1_c0_0 :J1_c1_0"/>
    <junction id=":J1_15_0" type="internal" x="1.52" y="0.88" incLanes=":J1_5_0 E3_1" intLanes=":J1_1_0 :J1_2_0 :J1_7_0 :J1_8_0 :J1_9_0 :J1_10_0 :J1_c1_0 :J1_c2_0"/>
    <junction id=":J1_16_0" type="internal" x="1.57" y="-2.95" incLanes=":J1_6_0" intLanes=":J1_2_0 :J1_10_0 :J1_c1_0 :J1_c2_0"/>
    <junction id=":J1_17_0" type="internal" x="-0.70" y="-3.36" incLanes=":J1_8_0 E0_1" intLanes=":J1_0_0 :J1_1_0 :J1_4_0 :J1_5_0 :J1_10_0 :J1_11_0 :J1_c2_0 :J1_c3_0"/>
    <junction id=":J1_18_0" type="internal" x="-4.54" y="-3.38" incLanes=":J1_9_0" intLanes=":J1_1_0 :J1_5_0 :J1_c2_0 :J1_c3_0"/>
    <junction id=":J1_19_0" type="internal" x="-4.89" y="-1.09" incLanes=":J1_11_0 -E4_1" intLanes=":J1_1_0 :J1_2_0 :J1_3_0 :J1_4_0 :J1_7_0 :J1_8_0 :J1_c0_0 :J1_c3_0"/>

    <connection from="-E0" to="-E6" fromLane="1" toLane="1" via=":J0_1_0" dir="s" state="M"/>
    <connection from="-E3" to="-E8" fromLane="1" toLane="1" via=":J4_0_0" dir="s" state="M"/>
    <connection from="-E4" to="-E0" fromLane="1" toLane="1" via=":J1_3_0" tl="J1" linkIndex="3" dir="r" state="o"/>
    <connection from="-E4" to="-E3" fromLane="1" toLane="1" via=":J1_4_0" tl="J1" linkIndex="4" dir="s" state="o"/>
    <connection from="-E4" to="E5" fromLane="1" toLane="1" via=":J1_5_0" tl="J1" linkIndex="5" dir="l" state="o"/>
    <connection from="-E5" to="E4" fromLane="1" toLane="1" via=":J1_6_0" tl="J1" linkIndex="6" dir="r" state="o"/>
    <connection from="-E5" to="-E0" fromLane="1" toLane="1" via=":J1_7_0" tl="J1" linkIndex="7" dir="s" state="o"/>
    <connection from="-E5" to="-E3" fromLane="1" toLane="1" via=":J1_8_0" tl="J1" linkIndex="8" dir="l" state="o"/>
    <connection from="-E7" to="-E5" fromLane="1" toLane="1" via=":J6_0_0" dir="s" state="M"/>
    <connection from="-E9" to="-E4" fromLane="1" toLane="1" via=":J5_0_0" dir="s" state="M"/>
    <connection from="E0" to="-E3" fromLane="1" toLane="1" via=":J1_0_0" tl="J1" linkIndex="0" dir="r" state="o"/>
    <connection from="E0" to="E5" fromLane="1" toLane="1" via=":J1_1_0" tl="J1" linkIndex="1" dir="s" state="o"/>
    <connection from="E0" to="E4" fromLane="1" toLane="1" via=":J1_2_0" tl="J1" linkIndex="2" dir="l" state="o"/>
    <connection from="E3" to="E5" fromLane="1" toLane="1" via=":J1_9_0" tl="J1" linkIndex="9" dir="r" state="o"/>
    <connection from="E3" to="E4" fromLane="1" toLane="1" via=":J1_10_0" tl="J1" linkIndex="10" dir="s" state="o"/>
    <connection from="E3" to="-E0" fromLane="1" toLane="1" via=":J1_11_0" tl="J1" linkIndex="11" dir="l" state="o"/>
    <connection from="E4" to="E9" fromLane="1" toLane="1" via=":J5_1_0" dir="s" state="M"/>
    <connection from="E5" to="E7" fromLane="1" toLane="1" via=":J6_1_0" dir="s" state="M"/>
    <connection from="E6" to="E0" fromLane="1" toLane="1" via=":J0_0_0" dir="s" state="M"/>
    <connection from="E8" to="E3" fromLane="1" toLane="1" via=":J4_1_0" dir="s" state="M"/>

    <connection from=":J0_0" to="E0" fromLane="0" toLane="1" dir="s" state="M"/>
    <connection from=":J0_1" to="-E6" fromLane="0" toLane="1" dir="s" state="M"/>
    <connection from=":J1_0" to="-E3" fromLane="0" toLane="1" via=":J1_12_0" dir="r" state="m"/>
    <connection from=":J1_12" to="-E3" fromLane="0" toLane="1" dir="r" state="m"/>
    <connection from=":J1_1" to="E5" fromLane="0" toLane="1" dir="s" state="M"/>
    <connection from=":J1_2" to="E4" fromLane="0" toLane="1" via=":J1_13_0" dir="l" state="m"/>
    <connection from=":J1_13" to="E4" fromLane="0" toLane="1" dir="l" state="m"/>
    <connection from=":J1_3" to="-E0" fromLane="0" toLane="1" via=":J1_14_0" dir="r" state="m"/>
    <connection from=":J1_14" to="-E0" fromLane="0" toLane="1" dir="r" state="m"/>
    <connection from=":J1_4" to="-E3" fromLane="0" toLane="1" dir="s" state="M"/>
    <connection from=":J1_5" to="E5" fromLane="0" toLane="1" via=":J1_15_0" dir="l" state="m"/>
    <connection from=":J1_15" to="E5" fromLane="0" toLane="1" dir="l" state="m"/>
    <connection from=":J1_6" to="E4" fromLane="0" toLane="1" via=":J1_16_0" dir="r" state="m"/>
    <connection from=":J1_16" to="E4" fromLane="0" toLane="1" dir="r" state="m"/>
    <connection from=":J1_7" to="-E0" fromLane="0" toLane="1" dir="s" state="M"/>
    <connection from=":J1_8" to="-E3" fromLane="0" toLane="1" via=":J1_17_0" dir="l" state="m"/>
    <connection from=":J1_17" to="-E3" fromLane="0" toLane="1" dir="l" state="m"/>
    <connection from=":J1_9" to="E5" fromLane="0" toLane="1" via=":J1_18_0" dir="r" state="m"/>
    <connection from=":J1_18" to="E5" fromLane="0" toLane="1" dir="r" state="m"/>
    <connection from=":J1_10" to="E4" fromLane="0" toLane="1" dir="s" state="M"/>
    <connection from=":J1_11" to="-E0" fromLane="0" toLane="1" via=":J1_19_0" dir="l" state="m"/>
    <connection from=":J1_19" to="-E0" fromLane="0" toLane="1" dir="l" state="m"/>
    <connection from=":J4_0" to="-E8" fromLane="0" toLane="1" dir="s" state="M"/>
    <connection from=":J4_1" to="E3" fromLane="0" toLane="1" dir="s" state="M"/>
    <connection from=":J5_0" to="-E4" fromLane="0" toLane="1" dir="s" state="M"/>
    <connection from=":J5_1" to="E9" fromLane="0" toLane="1" dir="s" state="M"/>
    <connection from=":J6_0" to="-E5" fromLane="0" toLane="1" dir="s" state="M"/>
    <connection from=":J6_1" to="E7" fromLane="0" toLane="1" dir="s" state="M"/>

    <connection from=":J0_w0" to="E0" fromLane="0" toLane="0" dir="s" state="M"/>
    <connection from="E6" to=":J0_w0" fromLane="0" toLane="0" dir="s" state="M"/>
    <connection from=":J0_w1" to="-E6" fromLane="0" toLane="0" dir="s" state="M"/>
    <connection from="-E0" to=":J0_w1" fromLane="0" toLane="0" dir="s" state="M"/>
    <connection from=":J1_c0" to=":J1_w0" fromLane="0" toLane="0" dir="s" state="M"/>
    <connection from=":J1_c1" to=":J1_w1" fromLane="0" toLane="0" dir="s" state="M"/>
    <connection from=":J1_c2" to=":J1_w2" fromLane="0" toLane="0" dir="s" state="M"/>
    <connection from=":J1_c3" to=":J1_w3" fromLane="0" toLane="0" dir="s" state="M"/>
    <connection from=":J1_w0" to=":J1_c3" fromLane="0" toLane="0" tl="J1" linkIndex="15" dir="s" state="M"/>
    <connection from=":J1_w0" to="-E3" fromLane="0" toLane="0" dir="s" state="M"/>
    <connection from="E0" to=":J1_w0" fromLane="0" toLane="0" dir="s" state="M"/>
    <connection from=":J1_w1" to=":J1_c0" fromLane="0" toLane="0" tl="J1" linkIndex="12" dir="s" state="M"/>
    <connection from=":J1_w1" to="-E0" fromLane="0" toLane="0" dir="s" state="M"/>
    <connection from="-E4" to=":J1_w1" fromLane="0" toLane="0" dir="s" state="M"/>
    <connection from=":J1_w2" to=":J1_c1" fromLane="0" toLane="0" tl="J1" linkIndex="13" dir="s" state="M"/>
    <connection from=":J1_w2" to="E4" fromLane="0" toLane="0" dir="s" state="M"/>
    <connection from="-E5" to=":J1_w2" fromLane="0" toLane="0" dir="s" state="M"/>
    <connection from=":J1_w3" to=":J1_c2" fromLane="0" toLane="0" tl="J1" linkIndex="14" dir="s" state="M"/>
    <connection from=":J1_w3" to="E5" fromLane="0" toLane="0" dir="s" state="M"/>
    <connection from="E3" to=":J1_w3" fromLane="0" toLane="0" dir="s" state="M"/>
    <connection from=":J10_w0" to="-E9" fromLane="0" toLane="0" dir="s" state="M"/>
    <connection from="E9" to=":J10_w0" fromLane="0" toLane="0" dir="s" state="M"/>
    <connection from=":J4_w0" to="-E8" fromLane="0" toLane="0" dir="s" state="M"/>
    <connection from="-E3" to=":J4_w0" fromLane="0" toLane="0" dir="s" state="M"/>
    <connection from=":J4_w1" to="E3" fromLane="0" toLane="0" dir="s" state="M"/>
    <connection from="E8" to=":J4_w1" fromLane="0" toLane="0" dir="s" state="M"/>
    <connection from=":J5_w0" to="-E4" fromLane="0" toLane="0" dir="s" state="M"/>
    <connection from="-E9" to=":J5_w0" fromLane="0" toLane="0" dir="s" state="M"/>
    <connection from=":J5_w1" to="E9" fromLane="0" toLane="0" dir="s" state="M"/>
    <connection from="E4" to=":J5_w1" fromLane="0" toLane="0" dir="s" state="M"/>
    <connection from=":J6_w0" to="-E5" fromLane="0" toLane="0" dir="s" state="M"/>
    <connection from="-E7" to=":J6_w0" fromLane="0" toLane="0" dir="s" state="M"/>
    <connection from=":J6_w1" to="E7" fromLane="0" toLane="0" dir="s" state="M"/>
    <connection from="E5" to=":J6_w1" fromLane="0" toLane="0" dir="s" state="M"/>
    <connection from=":J7_w0" to="E6" fromLane="0" toLane="0" dir="s" state="M"/>
    <connection from="-E6" to=":J7_w0" fromLane="0" toLane="0" dir="s" state="M"/>
    <connection from=":J8_w0" to="-E7" fromLane="0" toLane="0" dir="s" state="M"/>
    <connection from="E7" to=":J8_w0" fromLane="0" toLane="0" dir="s" state="M"/>
    <connection from=":J9_w0" to="E8" fromLane="0" toLane="0" dir="s" state="M"/>
    <connection from="-E8" to=":J9_w0" fromLane="0" toLane="0" dir="s" state="M"/>
</net>
